<?xml version="1.0" encoding="UTF-8"?>

<!-- generated on Sun Oct 19 05:28:32 2014 by SUMO netconvert Version 0.19.0
<?xml version="1.0" encoding="UTF-8"?>

<configuration xmlns:xsi="http://www.w3.org/2001/XMLSchema-instance" xsi:noNamespaceSchemaLocation="http://sumo-sim.org/xsd/netconvertConfiguration.xsd">

    <input>
        <node-files value="hello.nod.xml"/>
        <edge-files value="hello.edg.xml"/>
    </input>

    <output>
        <output-file value="hello.net.xml"/>
    </output>

</configuration>
-->

<net version="0.13" xmlns:xsi="http://www.w3.org/2001/XMLSchema-instance" xsi:noNamespaceSchemaLocation="http://sumo-sim.org/xsd/net_file.xsd">

    <location netOffset="250.00,250.00" convBoundary="0.00,0.00,501.00,500.00" origBoundary="-250.00,-250.00,251.00,250.00" projParameter="!"/>

    <edge id=":1_0" function="internal">
        <lane id=":1_0_0" index="0" speed="13.90" length="2.58" shape="3.25,1.65 2.55,1.75 2.05,2.05 1.75,2.55 1.65,3.25"/>
    </edge>
    <edge id=":2_0" function="internal">
        <lane id=":2_0_0" index="0" speed="13.90" length="2.58" shape="1.65,496.75 1.75,497.45 2.05,497.95 2.55,498.25 3.25,498.35"/>
    </edge>
    <edge id=":3_0" function="internal">
        <lane id=":3_0_0" index="0" speed="13.90" length="2.58" shape="496.76,498.35 497.46,498.25 497.95,497.95 498.26,497.45 498.36,496.75"/>
    </edge>
    <edge id=":4_0" function="internal">
        <lane id=":4_0_0" index="0" speed="13.90" length="2.58" shape="499.34,3.25 499.24,2.55 498.95,2.05 498.44,1.75 497.74,1.65"/>
    </edge>

    <edge id="bottom" from="4" to="1" priority="-1">
        <lane id="bottom_0" index="0" speed="13.90" length="494.49" shape="497.74,1.65 3.25,1.65"/>
    </edge>
    <edge id="left" from="1" to="2" priority="-1">
        <lane id="left_0" index="0" speed="13.90" length="493.50" shape="1.65,3.25 1.65,496.75"/>
    </edge>
    <edge id="right" from="3" to="4" priority="-1">
        <lane id="right_0" index="0" speed="13.90" length="493.50" shape="498.36,496.75 499.34,3.25"/>
    </edge>
    <edge id="top" from="2" to="3" priority="-1">
        <lane id="top_0" index="0" speed="13.90" length="493.51" shape="3.25,498.35 496.76,498.35"/>
    </edge>

    <junction id="1" type="priority" x="0.00" y="0.00" incLanes="bottom_0" intLanes=":1_0_0" shape="0.05,3.25 3.25,3.25 3.25,0.05">
        <request index="0" response="0" foes="0" cont="0"/>
    </junction>
    <junction id="2" type="priority" x="0.00" y="500.00" incLanes="left_0" intLanes=":2_0_0" shape="3.25,499.95 3.25,496.75 0.05,496.75">
        <request index="0" response="0" foes="0" cont="0"/>
    </junction>
    <junction id="3" type="priority" x="500.00" y="500.00" incLanes="top_0" intLanes=":3_0_0" shape="499.96,496.76 496.76,496.75 496.76,499.95">
        <request index="0" response="0" foes="0" cont="0"/>
    </junction>
    <junction id="4" type="priority" x="501.00" y="0.00" incLanes="right_0" intLanes=":4_0_0" shape="497.74,0.05 497.74,3.25 500.94,3.26">
        <request index="0" response="0" foes="0" cont="0"/>
    </junction>

    <connection from="bottom" to="left" fromLane="0" toLane="0" via=":1_0_0" dir="r" state="M"/>
    <connection from="left" to="top" fromLane="0" toLane="0" via=":2_0_0" dir="r" state="M"/>
    <connection from="right" to="bottom" fromLane="0" toLane="0" via=":4_0_0" dir="r" state="M"/>
    <connection from="top" to="right" fromLane="0" toLane="0" via=":3_0_0" dir="r" state="M"/>

    <connection from=":1_0" to="left" fromLane="0" toLane="0" dir="s" state="M"/>
    <connection from=":2_0" to="top" fromLane="0" toLane="0" dir="s" state="M"/>
    <connection from=":3_0" to="right" fromLane="0" toLane="0" dir="s" state="M"/>
    <connection from=":4_0" to="bottom" fromLane="0" toLane="0" dir="s" state="M"/>

</net>
