<?xml version="1.0" encoding="UTF-8"?>

<!-- generated on Sat Oct 25 16:30:14 2014 by SUMO netconvert Version 0.19.0
<?xml version="1.0" encoding="UTF-8"?>

<configuration xmlns:xsi="http://www.w3.org/2001/XMLSchema-instance" xsi:noNamespaceSchemaLocation="http://sumo-sim.org/xsd/netconvertConfiguration.xsd">

    <input>
        <osm-files value="hello.osm"/>
    </input>

    <output>
        <output-file value="hello.net.xml"/>
    </output>

    <projection>
        <proj.utm value="true"/>
    </projection>

</configuration>
-->

<net version="0.13" xmlns:xsi="http://www.w3.org/2001/XMLSchema-instance" xsi:noNamespaceSchemaLocation="http://sumo-sim.org/xsd/net_file.xsd">

    <location netOffset="-527259.45,197639.67" convBoundary="0.00,0.00,192.91,30.25" origBoundary="-14.754908,-1.788086,-14.753174,-1.787812" projParameter="+proj=utm +zone=28 +ellps=WGS84 +datum=WGS84 +units=m +no_defs"/>

    <edge id=":-125_0" function="internal">
        <lane id=":-125_0_0" index="0" speed="11.11" length="0.53" shape="89.84,0.09 90.36,0.00"/>
    </edge>

    <edge id="-126#0" from="-124" to="-125" priority="9" type="highway.primary" spreadType="center">
        <lane id="-126#0_0" index="0" speed="11.11" length="94.77" shape="-0.00,30.25 89.84,0.09"/>
    </edge>
    <edge id="-126#1" from="-125" to="-127" priority="9" type="highway.primary" spreadType="center">
        <lane id="-126#1_0" index="0" speed="11.11" length="102.55" shape="90.36,0.00 192.91,0.70"/>
    </edge>

    <tlLogic id="-125" type="static" programID="0" offset="0">
        <phase duration="15" state="G"/>
        <phase duration="3" state="y"/>
        <phase duration="50" state="r"/>
    </tlLogic>

    <junction id="-124" type="unregulated" x="0.00" y="30.25" incLanes="" intLanes="" shape="0.51,31.77 -0.51,28.73"/>
    <junction id="-125" type="traffic_light" x="90.09" y="0.00" incLanes="-126#0_0" intLanes=":-125_0_0" shape="90.35,1.60 90.37,-1.60 89.33,-1.43 90.35,1.60">
        <request index="0" response="0" foes="0" cont="0"/>
    </junction>
    <junction id="-127" type="unregulated" x="192.91" y="0.70" incLanes="-126#1_0" intLanes="" shape="192.92,-0.90 192.90,2.30"/>

    <connection from="-126#0" to="-126#1" fromLane="0" toLane="0" via=":-125_0_0" tl="-125" linkIndex="0" dir="s" state="o"/>

    <connection from=":-125_0" to="-126#1" fromLane="0" toLane="0" dir="s" state="M"/>

</net>
