<routes>
    <vType accel="0.3" decel="5.0" id="Car" length="5.0" maxSpeed="100.0" sigma="0.0" />
    <route id="route0" edges="-126#0 -126#1"/>
    <vehicle depart="0" id="veh0" route="route0" type="Car" />
</routes>

